###############################################################
# Input file for nanocutting of Cubic SiC with a diamond tool #
# Chris Fung, June 2013                                       #
# Input Variable:                                             #
# rA    rake angle of diamond tool (in degree)                #
###############################################################

package cuda gpu/node 1 0
package omp 2 force/neigh
using multi-threaded neighbor list subroutines
prefer double precision OpenMP force kernels

# ------------------------ INITIALIZATION ----------------------------
units 		metal
dimension	3
boundary	s	s	p
atom_style	atomic

variable a equal 4.3667  # lattice constant of 3C-SiC
variable b equal 3.571   # lattice constant of diamond
variable c equal $a/$b   # ratio of a and b
variable c equal 4.3667/$b
variable c equal 4.3667/3.571
variable d equal 5.05016 # lattice spacing of diamond in 110 direction
variable e equal $a/$d # lattice spacing of diamond in 110 direction
variable e equal 4.3667/$d
variable e equal 4.3667/5.05016
variable f equal $b/$d
variable f equal 3.571/$d
variable f equal 3.571/5.05016
variable dx equal 70*$e  # datum position x of tool region
variable dx equal 70*0.864665673958845
variable dy equal 5*$c   # datum position y of tool region
variable dy equal 5*1.22282273872865
variable lx equal 31     # x dimension of tool region
variable ly equal 31     # y dimension of tool region
variable dx1 equal 60.5265971771192+31
variable dy1 equal 6.11411369364325+31
variable lr equal 4      # tool edge radius
variable lrf equal 4*$f      # tool edge radius
variable lrf equal 4*0.707106309503065
variable rx equal 60.5265971771192+2.82842523801226
variable ry equal 6.11411369364325+4
variable rakeangle equal 15/180*PI
variable rkshiftX equal -31*0.707106309503065*tan(0.261799387799149)
variable frx equal 63.3550224151315-2.82842523801226*cos(0.261799387799149)
variable fry equal 10.1141136936433-4*sin(0.261799387799149)
variable clearangle equal 10/180*PI  # degree of clearance angle / 180 * PI
variable fcx1 equal 63.3550224151315+4*0.707106309503065*sin(0.174532925199433)
variable fcx2 equal 63.8461733033795+31
variable fcy1 equal 10.1141136936433-4*cos(0.174532925199433)
variable fcy2 equal 6.17488268159447+31/0.707106309503065*tan(0.174532925199433)
variable bx1 equal 91.5265971771192-1
variable bx2 equal 90.5265971771192-3
variable by1 equal 37.1141136936432-1
variable by2 equal 36.1141136936432-3

variable wh equal 10     # height of workpiece region
variable doc equal 10-6.11411369364325

lattice fcc $a
lattice fcc 4.3667
Lattice spacing in x,y,z = 4.3667 4.3667 4.3667
region		whole block 0 99 0 47 0 7
create_box	3 whole
Created orthogonal box = (0 0 0) to (432.303 205.235 30.5669)

# ----------------------- ATOM DEFINITION ----------------------------

# create C atoms for diamond tool
lattice diamond $b orient x 1 0 1 orient y 0 1 0 orient z -1 0 1 origin 0 0 0.4
lattice diamond 3.571 orient x 1 0 1 orient y 0 1 0 orient z -1 0 1 origin 0 0 0.4
Lattice spacing in x,y,z = 5.05016 3.571 5.05016

# define the shape, dimension, and initial position of cutting tool
region cut_toolB block 60.6229734300077 91.5265971771192 6.11411369364325 37.1141136936432 INF INF
region rakeface prism 60.6229734300077 91.5265971771192 9.07883751323322 37.1141136936432 INF INF  -5.87352550242322 0 0
region cut_toolR cylinder z 63.3550224151315 10.1141136936433  2.82842523801226 INF INF
region trimboxfr block EDGE 63.3550224151315 EDGE 9.07883751323322 INF INF side out
region trimboxfc block 63.3550224151315 EDGE EDGE 6.17488268159447 INF INF side out
region cut_toolBR union 2 cut_toolB rakeface
region cut_toolTr intersect 3 cut_toolBR trimboxfr trimboxfc
region cut_tool union 2 cut_toolTr cut_toolR

region trimfc prism 63.8461733033795 94.8461733033795 6.17488268159447 13.9051720716069 INF INF 31 0 0

#define boundaries of cutting tool
region ctTop block 60.5265971771192 91.5265971771192 36.1141136936432 37.1141136936432 INF INF
region ctxEnd block 90.5265971771192 91.5265971771192 6.11411369364325 37.1141136936432 INF INF
region ctTSbottom block 60.5265971771192 90.5265971771192 33.1141136936432 36.1141136936432 INF INF
region ctTSxEnd block 87.5265971771192 90.5265971771192 6.11411369364325 36.1141136936432 INF INF
region ctbound union 2 ctTop ctxEnd
region ctTSbound union 2 ctTSbottom ctTSxEnd

# create C atoms of diamond tool and make a nano-groove on the flank face
create_atoms 1 region cut_tool
Created 82116 atoms

delete_atoms region trimfc
Deleted 5808 atoms, new total = 76308

group gpCTall region  cut_tool
76308 atoms in group gpCTall
group gpCTbd  region  ctbound
2400 atoms in group gpCTbd
group gpCTtsbd  region  ctTSbound
7200 atoms in group gpCTtsbd
group gpCTmob subtract gpCTall gpCTbd gpCTtsbd
66708 atoms in group gpCTmob

print "diamond tool created"
diamond tool created
#------------------------------------------------------------

# define the lattice of cubic SiC (two atom types form two interpenetrating face-centered cubic lattices)

# define the shape and dimension of the workpiece
lattice fcc 4.3667 origin 0 0 0 orient x 1 0 0 orient y 0 1 0
Lattice spacing in x,y,z = 4.3667 4.3667 4.3667

# define the boundaries for workpiece
region workpiece block 0 65 0 10 INF INF
region wpbottom block 0 65 0 1 INF INF
region wpxEnd block 0 1 0 10 INF INF
region wpTSbottom block 1 65 1 2 INF INF
region wpTSxEnd block 1 2 1 10 INF INF
region wpbound union 2 wpbottom wpxEnd
region wpTSbound union 2 wpTSbottom wpTSxEnd

# create Si atoms for SiC workpiece
create_atoms	2 region workpiece
Created 19257 atoms

# offset origin for 1/4 unit cell for C atoms
lattice fcc 4.3667 origin 0.25 0.25 0.25 orient x 1 0 0 orient y 0 1 0
Lattice spacing in x,y,z = 4.3667 4.3667 4.3667
create_atoms	3 region workpiece
Created 18200 atoms

# groups atoms
group gpWPall region workpiece
37457 atoms in group gpWPall
group gpWPbd region wpbound
5201 atoms in group gpWPbd
group gpWPtsbd region wpTSbound
5061 atoms in group gpWPtsbd
group gpWPmob subtract gpWPall gpWPbd gpWPtsbd
28224 atoms in group gpWPmob

print "Workpiece created"
Workpiece created

#-------------------------------------------------

# define the mass of atoms
mass 1 12 #.0107 # C (g/mol)
mass 2 28 #.0855 # Si (g/mol)
mass 3 12 #.0107 # C (g/mol)

#group Si type 2
#group C type 1 3

lattice fcc 4.3667 origin 0 0 0
Lattice spacing in x,y,z = 4.3667 4.3667 4.3667

# ------------------------ FORCE FIELDS ------------------------------

#pair_style	atomistica Tersoff
#pair_coeff	* *  C Si C

pair_style	tersoff

pair_coeff	* * ../../potentials/SiC_Erhart-Albe.tersoff C Si C

# ------------------------- SETTINGS ---------------------------------
######################################
# EQUILIBRATION

# set temperature at 300 K
compute myCTtemp gpCTmob temp
compute myWPtemp gpWPmob temp
velocity all create 300 102456 dist uniform

fix 1 gpWPall nvt temp 300.0 300.0 0.05 #iso 1.0 1.0 0.5
fix 2 gpCTall nvt temp 300.0 300.0 0.05 #iso 1.0 1.0 0.5

reset_timestep	0
timestep 0.0005 # set 1 femtosecond per step

fix 3 gpWPbd move linear 0 0 0
fix 4 gpCTbd move linear 0 0 0

fix 10 all balance 100  0.9 shift xy 10 1.05 out pre_cut/tmp.balance.log
fix 13 all property/atom mol

set group gpCTmob mol 1
  66708 settings made for mol
set group gpCTtsbd mol 2
  7200 settings made for mol
set group gpCTbd mol 3
  2400 settings made for mol

set group gpWPmob mol 4
  28224 settings made for mol
set group gpWPtsbd mol 5
  5061 settings made for mol
set group gpWPbd mol 6
  5201 settings made for mol

# Display thermo

thermo 	100
#compute		eCSP all centro/atom fcc
#compute atomke all ke/atom
dump	 e0dumpCSP all custom 1000 pre_cut/dump.cutsic_eq.3.88588630635675.*.lammpstrj id type mol element x y z vx vy vz
dump_modify e0dumpCSP element C Si C

# backup initial state and every 1000 steps
write_restart pre_cut/cut_sic_eq.restart.0000
No /omp style for force computation currently active
restart 1000 pre_cut/cut_sic_eq.restart

# Run for at least 10 picosecond
print "start run equilibration"
start run equilibration

run 10000
No /omp style for force computation currently active
Step Temp E_pair E_mol TotEng Press Volume
0          300   -787919.38            0   -783507.84   -13886.253    1744760.4
This can cause a severe speed penalty due to frequent data synchronization between host and GPU. (../verlet_cuda.cpp:629)
Loop time of 1958.41 on 1 procs for 10000 steps with 113765 atoms

Pair  time (%) = 449.754 (22.9652)
Neigh time (%) = 8.91508 (0.45522)
Comm  time (%) = 13.4638 (0.687483)
Outpt time (%) = 6.73881 (0.344096)
Other time (%) = 1479.54 (75.548)

unfix 1
unfix 2
unfix 3
unfix 4
print "Complete equilibration process"
Complete equilibration process

#uncompute eCSP
#undump e0dumpCSP

######################################
# DEFORMATION

# move the tool to closer

#displace_atoms gpCTall move -4.9 0 0

reset_timestep	0
timestep 0.001

# rescale the temperature of thermostatic boundaries to 300 K

fix 1 all nve

fix 3 gpWPbd move linear 0 0 0
fix 4 gpCTbd move linear 0 0 0

# Output strain and stress info to file
# for units metal, pressure is in [bars] = 100 [kPa] = 1/10000 [GPa]
# p2, p3, p4 are in GPa

## Use cfg for AtomEye
#dump 		1 all cfg 2000 pre_cut/dump.cutsic_*.cfg id type xs ys zs c_csym

# Display thermo
#thermo 100
#compute atomdisp  all displace/atom
#compute atomstres all stress/atom
dump	 0dumpCSP all custom 100 pre_cut/dump.cutsic.3.88588630635675.lammpstrj id type mol element x y z vx vy vz
dump_modify 0dumpCSP element C Si C

#write_restart pre_cut/cut_sic.restart.0000
restart 1000 pre_cut/cut_sic.restart
#run		0

######################################
# SIMULATION DONE
print "All done"
All done
shell echo "Cutting simulation has completed -- cut_sic_eq" | mail -s "LAMMPS - simulation done" chris-fung1125@hotmail.com
shell curl -u v1xLeCC9qPNypWqVabP5ydNPIv94Kuo9guujz7K8nZUaq: https://api.pushbullet.com/v2/pushes -d type=note -d device_iden="ujz7K8nZUaqsjAgWOzmngO" -d title="Push from KhrisU" -d body="LAMMPS -- Simulation is finish"
